Circuit: * B:\Git\Automobile-PMR\LTspice\5x multiplier.asc

WARNING: Less than two connections to node NC_01.  This node is used by V1.
WARNING: Less than two connections to node N001.  This node is used by V2.
Direct Newton iteration for .op point succeeded.

Date: Wed Jan 12 21:00:37 2022
Total elapsed time: 0.263 seconds.

tnom = 27
temp = 27
method = modified trap
totiter = 27345
traniter = 27339
tranpoints = 11434
accept = 8525
rejected = 2909
matrix size = 9
fillins = 0
solver = Normal
Matrix Compiler1:      15 opcodes  0.1/[0.1]/0.1
Matrix Compiler2: off  [0.1]/0.1/0.1

