Circuit: * B:\Git\Automobile-PMR\LTspice\AF amp.asc

Early termination of direct N-R iteration.
Direct Newton iteration failed to find .op point.  (Use ".option noopiter" to skip.)
Starting Gmin stepping
Gmin = 10
vernier = 0.5
Gmin = 1.86414
vernier = 0.666667
vernier = 0.333333
vernier = 0.166667
Gmin = 1.02963
vernier = 0.0833333
vernier = 0.0416667
vernier = 0.0208333
vernier = 0.0104167
Gmin = 1.00338
vernier = 0.00520833
vernier = 0.00260417
vernier = 0.00130208
vernier = 0.000651042
vernier = 0.000488281
Gmin = 1.00013
Singular matrix:  Check nodes v:u2:ln#branch and v:u2:lp#branch
   Iteration No. 2
Gmin = 0
Singular matrix:  Check nodes v:u2:ln#branch and v:u2:lp#branch
   Iteration No. 1
Gmin stepping failed

Starting source stepping with srcstepmethod=0
Source Step = 3.0303%
Source Step = 33.3333%
Source Step = 63.6364%
Source Step = 93.9394%
Source stepping succeeded in finding the operating point.


Date: Wed Dec 29 18:13:25 2021
Total elapsed time: 0.235 seconds.

tnom = 27
temp = 27
method = trap
totiter = 1652
traniter = 0
tranpoints = 0
accept = 0
rejected = 0
matrix size = 61
fillins = 317
solver = Normal
Matrix Compiler1:    1115 opcodes
Matrix Compiler2: 10.44 KB object code size  1.0/1.1/[0.9]

