Circuit: * B:\Git\Automobile-PMR\LTspice\IF2 filter a amp.asc

Early termination of direct N-R iteration.
Direct Newton iteration failed to find .op point.  (Use ".option noopiter" to skip.)
Starting Gmin stepping
Gmin = 10
vernier = 0.5
vernier = 0.25
vernier = 0.125
vernier = 0.0625
Gmin = 8.61953
vernier = 0.03125
vernier = 0.015625
vernier = 0.0078125
vernier = 0.00390625
Gmin = 8.47038
vernier = 0.00195313
vernier = 0.000976563
vernier = 0.000488281
Gmin = 0
Gmin stepping failed

Starting source stepping with srcstepmethod=0
Source Step = 3.0303%
Source Step = 33.3333%
Source Step = 63.6364%
Source Step = 93.9394%
Source stepping succeeded in finding the operating point.


Date: Fri Dec 31 17:10:55 2021
Total elapsed time: 1.475 seconds.

tnom = 27
temp = 27
method = modified trap
totiter = 52764
traniter = 51085
tranpoints = 12159
accept = 8672
rejected = 3487
matrix size = 97
fillins = 645
solver = Normal
Thread vector: 9.1/8.3[2] 3.1/2.7[2] 4.2/3.4[2] 0.4/7.5[1]  2592/500
Matrix Compiler1: 76.94 KB object code size  9.7/4.4/[2.9]
Matrix Compiler2: 18.96 KB object code size  2.4/2.2/[1.0]

